Version 4
SHEET 1 5196 832
WIRE -176 -32 -176 -64
WIRE -48 -32 -48 -64
WIRE 96 -32 96 -64
WIRE -176 80 -176 48
WIRE -48 80 -48 48
WIRE 96 80 96 48
WIRE 816 96 816 80
WIRE 816 96 544 96
WIRE 544 128 544 96
WIRE 816 128 816 96
WIRE -16 208 -64 208
WIRE 80 208 64 208
WIRE 224 208 160 208
WIRE 336 208 224 208
WIRE 432 208 336 208
WIRE 464 208 432 208
WIRE 544 208 528 208
WIRE 608 208 544 208
WIRE 976 208 896 208
WIRE 336 240 336 208
WIRE 224 256 224 208
WIRE 544 320 544 288
WIRE 688 336 688 288
WIRE 816 336 816 288
WIRE -64 352 -64 208
WIRE 224 352 224 320
WIRE 336 352 336 320
WIRE -64 544 -64 432
FLAG -64 544 0
FLAG -176 80 0
FLAG -48 80 0
FLAG -176 -64 Vp
FLAG -48 -64 Vn
FLAG 816 80 Vp
FLAG 816 336 Vn
FLAG 976 208 OUT
FLAG 96 80 0
FLAG 96 -64 Vref
FLAG 688 336 Vref
FLAG 432 208 IN
FLAG 544 320 0
FLAG 224 352 0
FLAG 336 352 0
SYMBOL voltage -64 336 R0
WINDOW 123 24 124 Left 2
WINDOW 39 0 0 Left 2
SYMATTR Value2 AC 1
SYMATTR InstName VIN
SYMATTR Value SINE(0 100m 1.95k)
SYMBOL voltage -176 -48 R0
WINDOW 123 0 0 Left 2
WINDOW 39 0 0 Left 2
SYMATTR InstName V2
SYMATTR Value 9
SYMBOL voltage -48 -48 R0
WINDOW 123 0 0 Left 2
WINDOW 39 0 0 Left 2
SYMATTR InstName V3
SYMATTR Value 0
SYMBOL voltage 96 -48 R0
WINDOW 123 0 0 Left 2
WINDOW 39 0 0 Left 2
SYMATTR InstName V1
SYMATTR Value 0
SYMBOL StageA_LowPassSallenKey_ADA4898 640 160 R0
WINDOW 39 -35 -155 Left 2
WINDOW 0 -36 -221 Left 2
SYMATTR InstName STAGE1
SYMBOL cap 528 192 R90
WINDOW 0 0 32 VBottom 2
WINDOW 3 32 32 VTop 2
SYMATTR InstName C1
SYMATTR Value 100n
SYMBOL res 528 112 R0
SYMATTR InstName R1
SYMATTR Value 1Meg
SYMBOL res 528 192 R0
SYMATTR InstName R2
SYMATTR Value 1Meg
SYMBOL res 80 192 R90
WINDOW 0 0 56 VBottom 2
WINDOW 3 32 56 VTop 2
SYMATTR InstName R
SYMATTR Value 8.2k
SYMBOL ind 64 224 R270
WINDOW 0 32 56 VTop 2
WINDOW 3 5 56 VBottom 2
SYMATTR InstName Coil
SYMATTR Value 2.35
SYMBOL cap 208 256 R0
SYMATTR InstName C2
SYMATTR Value 570p
SYMBOL res 320 224 R0
SYMATTR InstName R3
SYMATTR Value 200k
TEXT 280 648 Left 2 !.ac dec 100 1 250k\n.save V(*?*) I(*?*)
TEXT 848 648 Left 2 ;If you're having trouble with simulation try the following:\n \n- Ensure that LTspice circuit folder is unzipped.  LTspice won't \nbe able to locate subcircuits if the folders are still zipped.\n \n- Update LTspice - devices that have been recently added to LTspice\nwon't be available unless you update by clicking Tools -> Sync Release.
