Version 4
SHEET 1 1124 680
WIRE -320 -224 -320 -288
WIRE -192 -224 -192 -288
WIRE -320 -96 -320 -144
WIRE -192 -96 -192 -144
WIRE 176 112 144 112
WIRE 320 128 240 128
WIRE -160 144 -208 144
WIRE 0 144 -160 144
WIRE 176 144 80 144
WIRE 320 144 320 128
WIRE 528 144 320 144
WIRE -208 192 -208 144
WIRE 144 304 144 112
WIRE 320 304 320 144
WIRE 320 304 144 304
WIRE -208 336 -208 272
FLAG -320 -96 0
FLAG -192 -96 0
FLAG -320 -288 v+
FLAG -192 -288 v-
FLAG -208 336 0
FLAG 208 96 v+
FLAG 208 160 v-
FLAG -160 144 Vin
SYMBOL voltage -320 -240 R0
WINDOW 123 0 0 Left 2
WINDOW 39 0 0 Left 2
SYMATTR InstName V1
SYMATTR Value 17
SYMBOL voltage -192 -240 R0
WINDOW 123 0 0 Left 2
WINDOW 39 0 0 Left 2
SYMATTR InstName V2
SYMATTR Value -17
SYMBOL voltage -208 176 R0
WINDOW 123 24 124 Left 2
WINDOW 39 0 0 Left 2
WINDOW 3 24 44 Left 2
SYMATTR Value2 AC 1
SYMATTR Value SINE(0 1 1k)
SYMATTR InstName Vin_source
SYMBOL res 96 128 R90
WINDOW 0 0 56 VBottom 2
WINDOW 3 32 56 VTop 2
SYMATTR InstName Rf6
SYMATTR Value 100
SYMBOL LME49710 208 128 R0
SYMATTR InstName U1
TEXT -88 392 Left 2 !.tran 10m\n;.ac oct 100 20 20k
