Version 4
SHEET 1 5196 964
WIRE -304 -32 -304 -80
WIRE -176 -32 -176 -64
WIRE -48 -32 -48 -64
WIRE 96 -32 96 -64
WIRE 1456 64 1424 64
WIRE 1552 64 1520 64
WIRE 1664 64 1632 64
WIRE 1712 64 1664 64
WIRE 1888 64 1792 64
WIRE -304 80 -304 48
WIRE -176 80 -176 48
WIRE -48 80 -48 48
WIRE 96 80 96 48
WIRE 1184 80 1184 48
WIRE 1968 80 1968 16
WIRE 416 96 416 32
WIRE 1424 96 1424 64
WIRE 864 128 864 80
WIRE 1664 176 1664 64
WIRE 1712 176 1664 176
WIRE 1888 192 1888 64
WIRE 1888 192 1776 192
WIRE 1904 192 1888 192
WIRE 1968 192 1968 160
WIRE 1968 192 1952 192
WIRE 2144 192 1968 192
WIRE 2176 192 2144 192
WIRE 336 208 -304 208
WIRE 416 208 416 176
WIRE 416 208 400 208
WIRE 496 208 416 208
WIRE 656 208 496 208
WIRE 1088 208 944 208
WIRE 1184 208 1184 160
WIRE 1184 208 1152 208
WIRE 1344 208 1184 208
WIRE 1712 208 1344 208
WIRE 1184 240 1184 208
WIRE 1744 240 1744 224
WIRE 1968 256 1968 192
WIRE 416 272 416 208
WIRE 736 336 736 288
WIRE 864 336 864 288
WIRE -304 352 -304 208
WIRE 1184 352 1184 320
WIRE 1968 352 1968 336
WIRE 416 368 416 352
WIRE -304 544 -304 432
WIRE -240 624 -256 624
WIRE -96 624 -160 624
WIRE 16 624 -96 624
WIRE 16 656 16 624
WIRE -96 672 -96 624
WIRE -96 768 -96 736
WIRE 16 768 16 736
FLAG -304 544 0
FLAG -176 80 0
FLAG -48 80 0
FLAG -176 -64 Vp
FLAG -48 -64 Vn
FLAG 864 80 Vp
FLAG 864 336 Vn
FLAG 96 80 0
FLAG 96 -64 Vref
FLAG 736 336 Vref
FLAG -96 768 0
FLAG 16 768 0
FLAG 416 32 Vp
FLAG -304 80 0
FLAG -304 -80 3.3V
FLAG 1184 352 0
FLAG 1184 48 3.3V
FLAG 1744 160 Vp
FLAG 1744 240 Vn
FLAG 2144 192 PREAMP_OUT
IOPIN 2144 192 Out
FLAG 416 368 0
FLAG 1344 208 STAGE1_OUT
IOPIN 1344 208 Out
FLAG 1968 16 Vp
FLAG 1968 352 0
FLAG 496 208 PREAMP_IN
IOPIN 496 208 Out
FLAG 1424 96 0
SYMBOL voltage -304 336 R0
WINDOW 123 24 124 Left 2
WINDOW 39 0 0 Left 2
SYMATTR Value2 AC 1
SYMATTR InstName VIN
SYMATTR Value SINE(0 100m 3k)
SYMBOL voltage -176 -48 R0
WINDOW 123 0 0 Left 2
WINDOW 39 0 0 Left 2
SYMATTR InstName V2
SYMATTR Value 9
SYMBOL voltage -48 -48 R0
WINDOW 123 0 0 Left 2
WINDOW 39 0 0 Left 2
SYMATTR InstName V3
SYMATTR Value 0
SYMBOL voltage 96 -48 R0
WINDOW 123 0 0 Left 2
WINDOW 39 0 0 Left 2
SYMATTR InstName V1
SYMATTR Value 5
SYMBOL StageA_LowPassSallenKey_ADA4898 688 160 R0
WINDOW 39 -35 -155 Left 2
WINDOW 0 -36 -221 Left 2
SYMATTR InstName STAGE1
SYMBOL cap 1968 176 R90
WINDOW 0 0 32 VBottom 2
WINDOW 3 32 32 VTop 2
SYMATTR InstName C1
SYMATTR Value 470n
SYMBOL res -240 608 R90
WINDOW 0 0 56 VBottom 2
WINDOW 3 32 56 VTop 2
SYMATTR InstName R
SYMATTR Value 8.2k
SYMBOL ind -256 640 R270
WINDOW 0 32 56 VTop 2
WINDOW 3 5 56 VBottom 2
SYMATTR InstName Coil
SYMATTR Value 2.35
SYMBOL cap -112 672 R0
SYMATTR InstName C2
SYMATTR Value 570p
SYMBOL res 0 640 R0
SYMATTR InstName R3
SYMATTR Value 200k
SYMBOL cap 400 192 R90
WINDOW 0 0 32 VBottom 2
WINDOW 3 32 32 VTop 2
SYMATTR InstName C3
SYMATTR Value 470n
SYMBOL res 400 80 R0
SYMATTR InstName R4
SYMATTR Value {R}
SYMBOL res 1808 48 R90
WINDOW 0 0 56 VBottom 2
WINDOW 3 32 56 VTop 2
SYMATTR InstName Rf
SYMATTR Value 2k
SYMBOL cap 1152 192 R90
WINDOW 0 0 32 VBottom 2
WINDOW 3 32 32 VTop 2
SYMATTR InstName C4
SYMATTR Value 470n
SYMBOL voltage -304 -48 R0
WINDOW 123 0 0 Left 0
WINDOW 39 0 0 Left 0
SYMATTR InstName V4
SYMATTR Value 3.3
SYMBOL res 1168 64 R0
SYMATTR InstName R8
SYMATTR Value 100k
SYMBOL res 1168 224 R0
SYMATTR InstName R9
SYMATTR Value 100k
SYMBOL res 400 256 R0
SYMATTR InstName R2
SYMATTR Value {R}
SYMBOL res 1648 48 R90
WINDOW 0 0 56 VBottom 2
WINDOW 3 32 56 VTop 2
SYMATTR InstName Rg
SYMATTR Value 500
SYMBOL res 1952 64 R0
SYMATTR InstName R5
SYMATTR Value {R}
SYMBOL res 1952 240 R0
SYMATTR InstName R6
SYMATTR Value {R}
SYMBOL cap 1520 48 R90
WINDOW 0 0 32 VBottom 2
WINDOW 3 32 32 VTop 2
SYMATTR InstName C5
SYMATTR Value 10µ
SYMBOL OpAmps\\UniversalOpAmp 1744 192 R0
SYMATTR InstName U1
TEXT 216 648 Left 2 !.ac dec 100 1 150k\n.save V(*?*) I(*?*)
TEXT 784 648 Left 2 ;If you're having trouble with simulation try the following:\n \n- Ensure that LTspice circuit folder is unzipped.  LTspice won't \nbe able to locate subcircuits if the folders are still zipped.\n \n- Update LTspice - devices that have been recently added to LTspice\nwon't be available unless you update by clicking Tools -> Sync Release.
TEXT 328 536 Left 2 ;.noise V(PREAMP_OUT) VIN dec 100 2k 1Meg
TEXT 384 440 Left 2 !.param R=100k
TEXT 336 496 Left 2 ;.tran 0 15ms 0 100ns
TEXT 728 448 Left 2 !.lib LME49710.lib
