Version 4
SHEET 1 5196 964
WIRE 624 -96 624 -160
WIRE -304 -32 -304 -80
WIRE -176 -32 -176 -64
WIRE -48 -32 -48 -64
WIRE 96 -32 96 -64
WIRE 624 64 624 -16
WIRE 720 64 624 64
WIRE 752 64 720 64
WIRE 864 64 832 64
WIRE 912 64 864 64
WIRE 1088 64 992 64
WIRE 2144 64 2144 32
WIRE -304 80 -304 48
WIRE -176 80 -176 48
WIRE -48 80 -48 48
WIRE 96 80 96 48
WIRE 624 80 624 64
WIRE 720 80 720 64
WIRE 1168 80 1168 16
WIRE 480 96 480 32
WIRE 1824 112 1824 64
WIRE 624 176 624 160
WIRE 720 176 720 144
WIRE 720 176 624 176
WIRE 864 176 864 64
WIRE 912 176 864 176
WIRE 624 192 624 176
WIRE 1088 192 1088 64
WIRE 1088 192 976 192
WIRE 1104 192 1088 192
WIRE 1168 192 1168 160
WIRE 1168 192 1152 192
WIRE 1280 192 1168 192
WIRE 1616 192 1280 192
WIRE 2048 192 1904 192
WIRE 2144 192 2144 144
WIRE 2144 192 2112 192
WIRE 2304 192 2144 192
WIRE 2368 192 2304 192
WIRE 400 208 -64 208
WIRE 480 208 480 176
WIRE 480 208 464 208
WIRE 560 208 480 208
WIRE 576 208 560 208
WIRE 912 208 576 208
WIRE 2144 224 2144 192
WIRE 944 240 944 224
WIRE 1168 256 1168 192
WIRE 480 272 480 208
WIRE 576 272 576 208
WIRE 1696 320 1696 272
WIRE 1824 320 1824 272
WIRE 2144 336 2144 304
WIRE -64 352 -64 208
WIRE 576 352 576 336
WIRE 576 352 480 352
WIRE 1168 352 1168 336
WIRE 480 368 480 352
WIRE -64 544 -64 432
WIRE -208 800 -224 800
WIRE -64 800 -128 800
WIRE 48 800 -64 800
WIRE 128 800 48 800
WIRE 48 832 48 800
WIRE -64 848 -64 800
WIRE -64 944 -64 912
WIRE 48 944 48 912
FLAG -64 544 0
FLAG -176 80 0
FLAG -48 80 0
FLAG -176 -64 Vp
FLAG -48 -64 Vn
FLAG 1824 64 Vp
FLAG 1824 320 Vn
FLAG 96 80 0
FLAG 96 -64 Vref
FLAG 1696 320 Vref
FLAG -64 944 0
FLAG 48 944 0
FLAG 480 32 Vp
FLAG -304 80 0
FLAG -304 -80 3.3V
FLAG 2144 336 0
FLAG 2144 32 3.3V
FLAG 944 160 Vp
FLAG 944 240 Vn
FLAG 128 800 FILTER_IN
FLAG 2304 192 PREAMP_OUT
IOPIN 2304 192 Out
FLAG 480 368 0
FLAG 1280 192 STAGE1_OUT
IOPIN 1280 192 Out
FLAG 1168 16 Vp
FLAG 1168 352 0
FLAG 560 208 PREAMP_IN
IOPIN 560 208 Out
FLAG 624 -160 Vp
FLAG 624 192 0
SYMBOL voltage -64 336 R0
WINDOW 123 24 124 Left 2
WINDOW 39 0 0 Left 2
SYMATTR Value2 AC 1
SYMATTR InstName VIN
SYMATTR Value SINE(0 100m 3k)
SYMBOL voltage -176 -48 R0
WINDOW 123 0 0 Left 2
WINDOW 39 0 0 Left 2
SYMATTR InstName V2
SYMATTR Value 9
SYMBOL voltage -48 -48 R0
WINDOW 123 0 0 Left 2
WINDOW 39 0 0 Left 2
SYMATTR InstName V3
SYMATTR Value 0
SYMBOL voltage 96 -48 R0
WINDOW 123 0 0 Left 2
WINDOW 39 0 0 Left 2
SYMATTR InstName V1
SYMATTR Value 5
SYMBOL StageA_LowPassSallenKey_ADA4898 1648 144 R0
WINDOW 39 -35 -155 Left 2
WINDOW 0 -36 -221 Left 2
SYMATTR InstName STAGE1
SYMBOL cap 1168 176 R90
WINDOW 0 0 32 VBottom 2
WINDOW 3 32 32 VTop 2
SYMATTR InstName C1
SYMATTR Value 470n
SYMBOL res -208 784 R90
WINDOW 0 0 56 VBottom 2
WINDOW 3 32 56 VTop 2
SYMATTR InstName R
SYMATTR Value 8.2k
SYMBOL ind -224 816 R270
WINDOW 0 32 56 VTop 2
WINDOW 3 5 56 VBottom 2
SYMATTR InstName Coil
SYMATTR Value 2.35
SYMBOL cap -80 848 R0
SYMATTR InstName C2
SYMATTR Value 570p
SYMBOL res 32 816 R0
SYMATTR InstName R3
SYMATTR Value 200k
SYMBOL cap 464 192 R90
WINDOW 0 0 32 VBottom 2
WINDOW 3 32 32 VTop 2
SYMATTR InstName C3
SYMATTR Value 470n
SYMBOL res 464 80 R0
SYMATTR InstName R4
SYMATTR Value {R}
SYMBOL res 1008 48 R90
WINDOW 0 0 56 VBottom 2
WINDOW 3 32 56 VTop 2
SYMATTR InstName Rf
SYMATTR Value 2k
SYMBOL cap 2112 176 R90
WINDOW 0 0 32 VBottom 2
WINDOW 3 32 32 VTop 2
SYMATTR InstName C4
SYMATTR Value 470n
SYMBOL voltage -304 -48 R0
WINDOW 123 0 0 Left 0
WINDOW 39 0 0 Left 0
SYMATTR InstName V4
SYMATTR Value 3.3
SYMBOL res 2128 48 R0
SYMATTR InstName R8
SYMATTR Value 100k
SYMBOL res 2128 208 R0
SYMATTR InstName R9
SYMATTR Value 100k
SYMBOL res 464 256 R0
SYMATTR InstName R2
SYMATTR Value {R}
SYMBOL res 848 48 R90
WINDOW 0 0 56 VBottom 2
WINDOW 3 32 56 VTop 2
SYMATTR InstName Rg
SYMATTR Value 1k
SYMBOL res 1152 64 R0
SYMATTR InstName R5
SYMATTR Value {R}
SYMBOL res 1152 240 R0
SYMATTR InstName R6
SYMATTR Value {R}
SYMBOL OpAmps\\opamp2 944 128 R0
SYMATTR InstName LME49710
SYMATTR Value LME49710
SYMBOL res 608 -112 R0
SYMATTR InstName R1
SYMATTR Value {R}
SYMBOL res 608 64 R0
SYMATTR InstName R7
SYMATTR Value {R}
SYMBOL cap 704 80 R0
SYMATTR InstName C5
SYMATTR Value 100n
SYMBOL cap 560 272 R0
SYMATTR InstName C6
SYMATTR Value 100n
TEXT 280 648 Left 2 ;.ac dec 100 1 150k\n.save V(*?*) I(*?*)
TEXT 848 648 Left 2 ;If you're having trouble with simulation try the following:\n \n- Ensure that LTspice circuit folder is unzipped.  LTspice won't \nbe able to locate subcircuits if the folders are still zipped.\n \n- Update LTspice - devices that have been recently added to LTspice\nwon't be available unless you update by clicking Tools -> Sync Release.
TEXT 392 536 Left 2 ;.noise V(PREAMP_OUT) VIN dec 100 2k 1Meg
TEXT 448 440 Left 2 !.param R=100k
TEXT 400 496 Left 2 !.tran 0 50ms 0 100ns
TEXT -8 -376 Left 2 !.lib LME49710.lib
