Version 4
SHEET 1 5196 964
WIRE -304 -32 -304 -80
WIRE -176 -32 -176 -64
WIRE -48 -32 -48 -64
WIRE 96 -32 96 -64
WIRE 592 64 560 64
WIRE 688 64 656 64
WIRE 800 64 768 64
WIRE 848 64 800 64
WIRE 1024 64 928 64
WIRE 1840 64 1840 32
WIRE -304 80 -304 48
WIRE -176 80 -176 48
WIRE -48 80 -48 48
WIRE 96 80 96 48
WIRE 1104 80 1104 16
WIRE 416 96 416 32
WIRE 560 96 560 64
WIRE 1520 112 1520 64
WIRE 800 176 800 64
WIRE 848 176 800 176
WIRE 1024 192 1024 64
WIRE 1024 192 912 192
WIRE 1040 192 1024 192
WIRE 1104 192 1104 160
WIRE 1104 192 1088 192
WIRE 1216 192 1104 192
WIRE 1312 192 1216 192
WIRE 1744 192 1600 192
WIRE 1840 192 1840 144
WIRE 1840 192 1808 192
WIRE 2000 192 1840 192
WIRE 2064 192 2000 192
WIRE 336 208 -304 208
WIRE 416 208 416 176
WIRE 416 208 400 208
WIRE 496 208 416 208
WIRE 848 208 496 208
WIRE 1840 224 1840 192
WIRE 880 240 880 224
WIRE 1104 256 1104 192
WIRE 416 272 416 208
WIRE 1520 320 1520 272
WIRE 1840 336 1840 304
WIRE -304 352 -304 208
WIRE 1104 352 1104 336
WIRE 416 368 416 352
WIRE 1248 432 1232 432
WIRE 1392 432 1392 272
WIRE 1392 432 1328 432
WIRE 1424 432 1392 432
WIRE 1568 432 1504 432
WIRE 1232 528 1232 432
WIRE 1264 528 1232 528
WIRE 1392 528 1392 432
WIRE 1392 528 1328 528
WIRE -304 544 -304 432
WIRE 1232 544 1232 528
WIRE -208 752 -224 752
WIRE -64 752 -128 752
WIRE 48 752 -64 752
WIRE 48 784 48 752
WIRE -64 800 -64 752
WIRE -64 896 -64 864
WIRE 48 896 48 864
FLAG -304 544 0
FLAG -176 80 0
FLAG -48 80 0
FLAG -176 -64 Vp
FLAG -48 -64 Vn
FLAG 1520 64 Vp
FLAG 1520 320 Vn
FLAG 96 80 0
FLAG 96 -64 Vref
FLAG -64 896 0
FLAG 48 896 0
FLAG 416 32 Vp
FLAG -304 80 0
FLAG -304 -80 3.3V
FLAG 1840 336 0
FLAG 1840 32 3.3V
FLAG 880 160 Vp
FLAG 880 240 Vn
FLAG 2000 192 PREAMP_OUT
IOPIN 2000 192 Out
FLAG 416 368 0
FLAG 1216 192 STAGE1_OUT
IOPIN 1216 192 Out
FLAG 1104 16 Vp
FLAG 1104 352 0
FLAG 496 208 PREAMP_IN
IOPIN 496 208 Out
FLAG 560 96 0
FLAG 1568 432 Vp
FLAG 1232 544 0
SYMBOL voltage -304 336 R0
WINDOW 123 24 124 Left 2
WINDOW 39 0 0 Left 2
SYMATTR Value2 AC 1
SYMATTR InstName VIN
SYMATTR Value SINE(0 100m 3k)
SYMBOL voltage -176 -48 R0
WINDOW 123 0 0 Left 2
WINDOW 39 0 0 Left 2
SYMATTR InstName V2
SYMATTR Value 9
SYMBOL voltage -48 -48 R0
WINDOW 123 0 0 Left 2
WINDOW 39 0 0 Left 2
SYMATTR InstName V3
SYMATTR Value 0
SYMBOL voltage 96 -48 R0
WINDOW 123 0 0 Left 2
WINDOW 39 0 0 Left 2
SYMATTR InstName V1
SYMATTR Value 5
SYMBOL StageA_LowPassSallenKey_ADA4898 1344 144 R0
WINDOW 39 -35 -155 Left 2
WINDOW 0 -36 -221 Left 2
SYMATTR InstName STAGE1
SYMBOL cap 1104 176 R90
WINDOW 0 0 32 VBottom 2
WINDOW 3 32 32 VTop 2
SYMATTR InstName C1
SYMATTR Value 470n
SYMBOL res -208 736 R90
WINDOW 0 0 56 VBottom 2
WINDOW 3 32 56 VTop 2
SYMATTR InstName R
SYMATTR Value 10k
SYMBOL ind -224 768 R270
WINDOW 0 32 56 VTop 2
WINDOW 3 5 56 VBottom 2
SYMATTR InstName Coil
SYMATTR Value 2.35
SYMBOL cap -80 800 R0
SYMATTR InstName C2
SYMATTR Value 570p
SYMBOL res 32 768 R0
SYMATTR InstName R3
SYMATTR Value 250k
SYMBOL cap 400 192 R90
WINDOW 0 0 32 VBottom 2
WINDOW 3 32 32 VTop 2
SYMATTR InstName C3
SYMATTR Value 470n
SYMBOL res 400 80 R0
SYMATTR InstName R4
SYMATTR Value {RBin}
SYMBOL res 944 48 R90
WINDOW 0 0 56 VBottom 2
WINDOW 3 32 56 VTop 2
SYMATTR InstName Rf
SYMATTR Value 0
SYMBOL cap 1808 176 R90
WINDOW 0 0 32 VBottom 2
WINDOW 3 32 32 VTop 2
SYMATTR InstName C4
SYMATTR Value 470n
SYMBOL voltage -304 -48 R0
WINDOW 123 0 0 Left 0
WINDOW 39 0 0 Left 0
SYMATTR InstName V4
SYMATTR Value 3.3
SYMBOL res 1824 48 R0
SYMATTR InstName R8
SYMATTR Value 100k
SYMBOL res 1824 208 R0
SYMATTR InstName R9
SYMATTR Value 100k
SYMBOL res 400 256 R0
SYMATTR InstName R2
SYMATTR Value {Rbin}
SYMBOL res 784 48 R90
WINDOW 0 0 56 VBottom 2
WINDOW 3 32 56 VTop 2
SYMATTR InstName Rg
SYMATTR Value 500
SYMBOL res 1088 64 R0
SYMATTR InstName R5
SYMATTR Value {R}
SYMBOL res 1088 240 R0
SYMATTR InstName R6
SYMATTR Value {R}
SYMBOL cap 656 48 R90
WINDOW 0 0 32 VBottom 2
WINDOW 3 32 32 VTop 2
SYMATTR InstName C5
SYMATTR Value 10µ
SYMBOL OpAmps\\UniversalOpAmp 880 192 R0
SYMATTR InstName U1
SYMBOL res 1520 416 R90
WINDOW 0 0 56 VBottom 2
WINDOW 3 32 56 VTop 2
SYMATTR InstName R1
SYMATTR Value {R}
SYMBOL res 1344 416 R90
WINDOW 0 0 56 VBottom 2
WINDOW 3 32 56 VTop 2
SYMATTR InstName R7
SYMATTR Value {R}
SYMBOL cap 1328 512 R90
WINDOW 0 0 32 VBottom 2
WINDOW 3 32 32 VTop 2
SYMATTR InstName C7
SYMATTR Value 220n
TEXT 216 648 Left 2 !.ac dec 100 5 500k\n.save V(*?*) I(*?*)
TEXT 784 648 Left 2 ;If you're having trouble with simulation try the following:\n \n- Ensure that LTspice circuit folder is unzipped.  LTspice won't \nbe able to locate subcircuits if the folders are still zipped.\n \n- Update LTspice - devices that have been recently added to LTspice\nwon't be available unless you update by clicking Tools -> Sync Release.
TEXT 328 536 Left 2 ;.noise V(PREAMP_OUT) VIN dec 100 2k 1Meg
TEXT 368 424 Left 2 !.param R=100k
TEXT 336 496 Left 2 ;.tran 0 15ms 0 100ns
TEXT -8 -376 Left 2 !.lib LME49710.lib
TEXT 376 464 Left 2 !.param Rbin=1Meg
