Version 4
SHEET 1 5196 964
WIRE -304 -32 -304 -80
WIRE -176 -32 -176 -64
WIRE -48 -32 -48 -64
WIRE 96 -32 96 -64
WIRE -304 80 -304 48
WIRE -176 80 -176 48
WIRE -48 80 -48 48
WIRE 96 80 96 48
WIRE 544 96 544 48
WIRE 1216 96 1216 32
WIRE 1504 96 1456 96
WIRE 1680 96 1584 96
WIRE 1808 96 1808 64
WIRE 816 128 816 80
WIRE 464 208 -64 208
WIRE 544 208 544 176
WIRE 544 208 528 208
WIRE 608 208 544 208
WIRE 1040 208 896 208
WIRE 1136 208 1040 208
WIRE 1216 208 1216 176
WIRE 1216 208 1200 208
WIRE 1328 208 1216 208
WIRE 1456 208 1456 96
WIRE 1456 208 1408 208
WIRE 1504 208 1456 208
WIRE 1680 224 1680 96
WIRE 1680 224 1568 224
WIRE 1712 224 1680 224
WIRE 1808 224 1808 176
WIRE 1808 224 1776 224
WIRE 1968 224 1808 224
WIRE 2032 224 1968 224
WIRE 544 240 544 208
WIRE 1216 240 1216 208
WIRE 1504 240 1472 240
WIRE 1808 256 1808 224
WIRE 1520 272 1520 256
WIRE 688 336 688 288
WIRE 816 336 816 288
WIRE -64 352 -64 208
WIRE 1808 368 1808 336
WIRE -64 544 -64 432
WIRE -208 800 -224 800
WIRE -64 800 -128 800
WIRE 48 800 -64 800
WIRE 128 800 48 800
WIRE 48 832 48 800
WIRE -64 848 -64 800
WIRE -64 944 -64 912
WIRE 48 944 48 912
FLAG -64 544 0
FLAG -176 80 0
FLAG -48 80 0
FLAG -176 -64 Vp
FLAG -48 -64 Vn
FLAG 816 80 Vp
FLAG 816 336 Vn
FLAG 96 80 0
FLAG 96 -64 Vref
FLAG 688 336 Vref
FLAG -64 944 0
FLAG 48 944 0
FLAG 1216 32 Vref
FLAG -304 80 0
FLAG -304 -80 3.3V
FLAG 1808 368 0
FLAG 1808 64 3.3V
FLAG 1472 240 Vref
FLAG 1552 256 Vp
FLAG 1520 192 Vp
FLAG 1520 272 0
FLAG 128 800 FILTER_IN
FLAG 1040 208 FILTER_OUT
FLAG 1968 224 PREAMP_OUT
IOPIN 1968 224 Out
FLAG 544 48 Vref
SYMBOL voltage -64 336 R0
WINDOW 123 24 124 Left 2
WINDOW 39 0 0 Left 2
SYMATTR Value2 AC 1
SYMATTR InstName VIN
SYMATTR Value SINE(5 100m 1.95k)
SYMBOL voltage -176 -48 R0
WINDOW 123 0 0 Left 2
WINDOW 39 0 0 Left 2
SYMATTR InstName V2
SYMATTR Value 9
SYMBOL voltage -48 -48 R0
WINDOW 123 0 0 Left 2
WINDOW 39 0 0 Left 2
SYMATTR InstName V3
SYMATTR Value 0
SYMBOL voltage 96 -48 R0
WINDOW 123 0 0 Left 2
WINDOW 39 0 0 Left 2
SYMATTR InstName V1
SYMATTR Value 5
SYMBOL StageA_LowPassSallenKey_ADA4898 640 160 R0
WINDOW 39 -35 -155 Left 2
WINDOW 0 -36 -221 Left 2
SYMATTR InstName STAGE1
SYMBOL cap 528 192 R90
WINDOW 0 0 32 VBottom 2
WINDOW 3 32 32 VTop 2
SYMATTR InstName C1
SYMATTR Value 1µ
SYMBOL res 528 80 R0
SYMATTR InstName R1
SYMATTR Value 100k
SYMBOL res -208 784 R90
WINDOW 0 0 56 VBottom 2
WINDOW 3 32 56 VTop 2
SYMATTR InstName R
SYMATTR Value 8.2k
SYMBOL ind -224 816 R270
WINDOW 0 32 56 VTop 2
WINDOW 3 5 56 VBottom 2
SYMATTR InstName Coil
SYMATTR Value 2.35
SYMBOL cap -80 848 R0
SYMATTR InstName C2
SYMATTR Value 570p
SYMBOL res 32 816 R0
SYMATTR InstName R3
SYMATTR Value 200k
SYMBOL cap 1200 192 R90
WINDOW 0 0 32 VBottom 2
WINDOW 3 32 32 VTop 2
SYMATTR InstName C3
SYMATTR Value 1µ
SYMBOL res 1200 80 R0
SYMATTR InstName R4
SYMATTR Value 100k
SYMBOL OpAmps\\ADA4898 1536 240 R0
SYMATTR InstName U1
SYMBOL res 1424 192 R90
WINDOW 0 0 56 VBottom 2
WINDOW 3 32 56 VTop 2
SYMATTR InstName R6
SYMATTR Value 10k
SYMBOL res 1600 80 R90
WINDOW 0 0 56 VBottom 2
WINDOW 3 32 56 VTop 2
SYMATTR InstName Pot
SYMATTR Value 10k
SYMBOL cap 1776 208 R90
WINDOW 0 0 32 VBottom 2
WINDOW 3 32 32 VTop 2
SYMATTR InstName C4
SYMATTR Value 1µ
SYMBOL voltage -304 -48 R0
WINDOW 123 0 0 Left 0
WINDOW 39 0 0 Left 0
SYMATTR InstName V4
SYMATTR Value 3.3
SYMBOL res 1792 80 R0
SYMATTR InstName R8
SYMATTR Value 100k
SYMBOL res 1792 240 R0
SYMATTR InstName R9
SYMATTR Value 100k
TEXT 280 648 Left 2 ;.ac dec 100 1 250k\n.save V(*?*) I(*?*)
TEXT 848 648 Left 2 ;If you're having trouble with simulation try the following:\n \n- Ensure that LTspice circuit folder is unzipped.  LTspice won't \nbe able to locate subcircuits if the folders are still zipped.\n \n- Update LTspice - devices that have been recently added to LTspice\nwon't be available unless you update by clicking Tools -> Sync Release.
TEXT 392 536 Left 2 !.noise V(PREAMP_OUT) VIN dec 100 2k 1Meg
